0,   100.00, 33, 0, 1, 60.00     / PSS(R)E-33.12   MON, SEP 14 2020  14:13
TYTFS 2019 SHORT CIRCUIT STUDIES; / CASE: 2019/2020;  WINTER
< ENTER MEANINGFUL STUDY COMMENT #2 HERE >              / NE
    10,'F_M         ',  38.0000,1,   1,  11,   1,1.08292,  -9.9551,1.10000,0.90000,1.10000,0.90000
    11,'FMN LOOP    ',  38.0000,1,   1,  11,   1,1.08842,  -9.1726,1.10000,0.90000,1.10000,0.90000
    12,'BEDFORD ROW ',  38.0000,1,   1,  11,   1,1.05650, -10.8546,1.10000,0.90000,1.10000,0.90000
    13,'M_R         ',  38.0000,1,   1,  11,   1,1.07637,  -9.4324,1.10000,0.90000,1.10000,0.90000
    14,'F_I         ',  38.0000,1,   1,  11,   1,1.08816,  -6.6614,1.10000,0.90000,1.10000,0.90000
    15,'I_M         ',  38.0000,1,   1,  11,   1,1.08474,  -7.8671,1.10000,0.90000,1.10000,0.90000
  1021,'ARDNACRUSHA ', 110.0000,1,   4,   4,   1,1.05000,  10.6716,1.10000,0.90000,1.10000,0.90000
  1041,'AGHADA      ', 110.0000,1,   3,  10,   2,1.06660,  14.7247,1.10000,0.90000,1.10000,0.90000
  1042,'AGHADA      ', 220.0000,1,   3,  10,   2,1.07471,  18.2430,1.10000,0.90000,1.10000,0.90000
  1052,'AGHADA_B    ', 220.0000,1,   3,  10,   2,1.07446,  17.6210,1.10000,0.90000,1.10000,0.90000
  1061,'ARIGNA      ', 110.0000,1,   9,   1,   3,1.04795,   2.8842,1.10000,0.90000,1.10000,0.90000
  1062,'AGH_AT14    ', 220.0000,1,   3,  10,   9,1.07462,  18.2264,1.10000,0.90000,1.10000,0.90000
  1071,'AGANNYGAL   ', 110.0000,1,   4,   4,   3,1.07069,   8.8327,1.10000,0.90000,1.10000,0.90000
  1072,'AGHT2102    ', 220.0000,1,   3,  10,   2,1.07462,  18.2264,1.10000,0.90000,1.10000,0.90000
  1081,'AHANE       ', 110.0000,1,   7,   4,   2,1.05847,  10.8229,1.10000,0.90000,1.10000,0.90000
  1091,'ADAMSTOWN   ', 110.0000,1,   1,  11,   1,1.03240,  -7.4771,1.10000,0.90000,1.10000,0.90000
  1101,'ANNER       ', 110.0000,1,   5,   8,   6,1.04496,   6.1994,1.10000,0.90000,1.10000,0.90000
  1121,'ARKLOW      ', 110.0000,1,   6,   9,   3,1.06639,   0.8669,1.10000,0.90000,1.10000,0.90000
  1122,'ARKLOW      ', 220.0000,1,   6,   9,   3,1.06472,   2.1108,1.10000,0.90000,1.10000,0.90000
  1131,'ATHEA       ', 110.0000,1,   7,   5,  17,1.07705,  16.3400,1.10000,0.90000,1.10000,0.90000
  1141,'ATHLONE     ', 110.0000,1,   9,   3,   3,1.06658,   3.4776,1.10000,0.90000,1.10000,0.90000
  1161,'AUGHINISH   ', 110.0000,1,   7,   5,   2,1.05000,  15.2611,1.10000,0.90000,1.10000,0.90000
  1181,'ARVA        ', 110.0000,1,  10,   7,   3,1.04183,  -3.5005,1.10000,0.90000,1.10000,0.90000
  1201,'ARTANE      ', 110.0000,1,   1,  11,   1,1.07014,  -5.1261,1.10000,0.90000,1.10000,0.90000
  1211,'BALLYVOUSKIL', 110.0000,1,   3,   5,   3,1.07471,  18.8743,1.10000,0.90000,1.10000,0.90000
  1212,'BALLYVOUSKIL', 220.0000,1,   3,   5,   3,1.07286,  17.1924,1.10000,0.90000,1.10000,0.90000
  1221,'ATHY        ', 110.0000,1,   8,   9,   3,1.04818,  -0.2731,1.10000,0.90000,1.10000,0.90000
  1231,'BALLYWATER  ', 110.0000,1,   6,   9,  17,1.06288,   3.1630,1.10000,0.90000,1.10000,0.90000
  1251,'BOOLTIAGH   ', 110.0000,1,   4,   4,  17,1.06696,  12.4691,1.10000,0.90000,1.10000,0.90000
  1271,'BALTRASNA   ', 110.0000,1,  10,  11,   2,1.04621,  -5.2342,1.10000,0.90000,1.10000,0.90000
  1281,'BALLYLICKEY ', 110.0000,1,   3,   6,   3,1.04429,  14.0112,1.10000,0.90000,1.10000,0.90000
  1301,'BALLYBEG    ', 110.0000,1,   6,   9,   2,1.06219,  -0.6386,1.10000,0.90000,1.10000,0.90000
  1311,'CORDAL      ', 110.0000,1,   3,   5,  17,1.06100,  18.7056,1.10000,0.90000,1.10000,0.90000
  1321,'BLAKE       ', 110.0000,1,   8,  11,   2,1.05393,  -2.5338,1.10000,0.90000,1.10000,0.90000
  1341,'BINBANE     ', 110.0000,1,   9,   1,   3,1.03753,   4.3648,1.10000,0.90000,1.10000,0.90000
  1351,'BARODA      ', 110.0000,1,   8,  11,   6,1.05398,  -2.7193,1.10000,0.90000,1.10000,0.90000
  1361,'BALLYDINE   ', 110.0000,1,   5,   8,   3,1.04709,   6.0938,1.10000,0.90000,1.10000,0.90000
  1381,'BARNAHELY   ', 110.0000,1,   3,  10,   2,1.06313,  14.1709,1.10000,0.90000,1.10000,0.90000
  1391,'BARNAHELYB  ', 110.0000,1,   3,  10,   2,1.05916,  14.0028,1.10000,0.90000,1.10000,0.90000
  1401,'BELLACORICK ', 110.0000,1,   9,   2,   3,1.06161,   6.6495,1.10000,0.90000,1.10000,0.90000
  1411,'AIRTON ROAD ', 110.0000,1,   1,  11,   7,1.07151,  -4.2557,1.10000,0.90000,1.10000,0.90000
  1421,'BLACKROCK   ', 110.0000,1,   1,  11,   1,1.07265,  -6.2233,1.10000,0.90000,1.10000,0.90000
  1441,'BANDON      ', 110.0000,1,   3,   6,   2,1.04373,  12.7079,1.10000,0.90000,1.10000,0.90000
  1451,'CLOGHRAN    ', 110.0000,1,   1,  11,   7,1.05320,  -4.1658,1.10000,0.90000,1.10000,0.90000
  1461,'BARRYMORE   ', 110.0000,1,   5,   8,   2,1.05331,  11.1958,1.10000,0.90000,1.10000,0.90000
  1471,'BELCAMP     ', 110.0000,1,   1,  11,   7,1.07199,  -2.6743,1.10000,0.90000,1.10000,0.90000
  1472,'BELCAMP     ', 220.0000,1,   1,  11,   7,1.07532,  -1.6872,1.10000,0.90000,1.10000,0.90000
  1481,'BUTLERSTOWN ', 110.0000,1,   5,  12,   3,1.05380,   5.4449,1.10000,0.90000,1.10000,0.90000
  1501,'BRINNY      ', 110.0000,1,   3,   6,   6,1.04361,  12.6995,1.10000,0.90000,1.10000,0.90000
  1511,'CLOGHBOOLA  ', 110.0000,1,   7,   5,  17,1.07739,  16.7649,1.10000,0.90000,1.10000,0.90000
  1522,'CLONEE      ', 220.0000,1,   2,  11,   7,1.07402,  -0.8004,1.10000,0.90000,1.10000,0.90000
  1541,'BANOGE      ', 110.0000,1,   6,   9,   3,1.05911,   1.5319,1.10000,0.90000,1.10000,0.90000
  1551,'BOGGERAGH   ', 110.0000,1,   3,   5,  17,1.05000,  16.1290,1.10000,0.90000,1.10000,0.90000
  1571,'ARDNAGAPPARY', 110.0000,1,   9,   1,   3,1.02120,   3.5758,1.10000,0.90000,1.10000,0.90000
  1581,'CABRA       ', 110.0000,1,   1,  11,   1,1.06944,  -5.1790,1.10000,0.90000,1.10000,0.90000
  1601,'CLASHAVOON  ', 110.0000,1,   3,   5,   3,1.05790,  15.1268,1.10000,0.90000,1.10000,0.90000
  1602,'CLASHAVOON  ', 220.0000,1,   3,   5,   3,1.06820,  16.5705,1.10000,0.90000,1.10000,0.90000
  1611,'CLONKEEN    ', 110.0000,1,   7,   5,   3,1.04874,  13.3994,1.10000,0.90000,1.10000,0.90000
  1621,'COOLROE     ', 110.0000,1,   3,  10,   2,1.05096,  13.8322,1.10000,0.90000,1.10000,0.90000
  1631,'CORDERRY    ', 110.0000,1,   9,   1,   3,1.05049,   3.6390,1.10000,0.90000,1.10000,0.90000
  1641,'CASHLA      ', 110.0000,1,   9,   2,   2,1.07038,   7.9172,1.10000,0.90000,1.10000,0.90000
  1642,'CASHLA      ', 220.0000,1,   9,   2,   2,1.06858,  10.0625,1.10000,0.90000,1.10000,0.90000
  1651,'CLAHANE     ', 110.0000,1,   7,   5,  17,1.05706,  13.0841,1.10000,0.90000,1.10000,0.90000
  1661,'CASTLEBAR   ', 110.0000,1,   9,   2,   3,1.04768,   4.8431,1.10000,0.90000,1.10000,0.90000
  1681,'CARRIGADROHI', 110.0000,1,   3,   5,  21,1.05641,  14.7764,1.10000,0.90000,1.10000,0.90000
  1691,'CENTRAL PARK', 110.0000,1,   1,  11,   1,1.06455,  -2.9750,1.10000,0.90000,1.10000,0.90000
  1701,'CATH_FALL   ', 110.0000,1,   9,   1,   3,1.05000,   4.4478,1.10000,0.90000,1.10000,0.90000
  1711,'CROMCASTLE  ', 110.0000,1,   1,  11,   1,1.05712,  -6.3187,1.10000,0.90000,1.10000,0.90000
  1721,'CAHIR       ', 110.0000,1,   5,   8,   3,1.05647,   7.6011,1.10000,0.90000,1.10000,0.90000
  1731,'CROMCASTLE  ', 110.0000,1,   1,  11,   1,1.05712,  -6.3187,1.10000,0.90000,1.10000,0.90000
  1741,'CARRICKMINES', 110.0000,1,   2,  11,   2,1.06479,  -2.9161,1.10000,0.90000,1.10000,0.90000
  1742,'CARRICKMINES', 220.0000,1,   2,  11,   2,1.06805,  -0.7547,1.10000,0.90000,1.10000,0.90000
  1761,'CLIFF       ', 110.0000,1,   9,   1,  13,1.05067,   4.6452,1.10000,0.90000,1.10000,0.90000
  1781,'CASTLEFARM  ', 110.0000,1,   7,   5,   6,1.04949,  15.2420,1.10000,0.90000,1.10000,0.90000
  1791,'BRACKLONE   ', 110.0000,1,   8,  11,   2,1.05205,  -1.8371,1.10000,0.90000,1.10000,0.90000
  1801,'COOKSTOWN   ', 110.0000,1,   1,  11,   2,1.05966,  -2.0820,1.10000,0.90000,1.10000,0.90000
  1810,'DARNDALE    ', 110.0000,1,   1,  11,   7,1.07186,  -2.6899,1.10000,0.90000,1.10000,0.90000
  1821,'CLOON       ', 110.0000,1,   9,   2,   2,1.05795,   5.6474,1.10000,0.90000,1.10000,0.90000
  1831,'SCREEB      ', 110.0000,1,   9,   2,   3,1.04789,   5.2160,1.10000,0.90000,1.10000,0.90000
  1841,'CRANE       ', 110.0000,1,   6,   9,   3,1.06193,   3.0132,1.10000,0.90000,1.10000,0.90000
  1851,'CHERRYWOOD  ', 110.0000,1,   2,  11,   6,1.06371,  -2.9839,1.10000,0.90000,1.10000,0.90000
  1861,'CARRICK ON S', 110.0000,1,   9,   3,   3,1.04842,   1.6600,1.10000,0.90000,1.10000,0.90000
  1871,'COLLEGE PARK', 110.0000,1,   2,  11,   1,1.05342,  -4.1680,1.10000,0.90000,1.10000,0.90000
  1881,'CHARLEVILLE ', 110.0000,1,   3,   5,   2,1.04600,  11.1561,1.10000,0.90000,1.10000,0.90000
  1901,'CARLOW      ', 110.0000,1,   6,   9,   3,1.05380,   0.7560,1.10000,0.90000,1.10000,0.90000
  1921,'COW CROSS   ', 110.0000,1,   3,  10,   2,1.06117,  13.9602,1.10000,0.90000,1.10000,0.90000
  1931,'CUNGHILL    ', 110.0000,1,   9,   2,   3,1.05425,   4.4189,1.10000,0.90000,1.10000,0.90000
  1941,'CUSHALING   ', 110.0000,1,   8,  11,  12,1.07500,   0.5825,1.10000,0.90000,1.10000,0.90000
  1951,'CARROWBEG   ', 110.0000,1,   9,   2,   3,1.03967,   4.0669,1.10000,0.90000,1.10000,0.90000
  1961,'CASTLEVIEW  ', 110.0000,1,   3,  10,   2,1.05630,  13.3574,1.10000,0.90000,1.10000,0.90000
  1971,'COOMAGEARLAH', 110.0000,1,   7,   5,  17,1.07373,  19.5585,1.10000,0.90000,1.10000,0.90000
  1981,'CORRACLASSY ', 110.0000,1,   9,   1,   3,1.03963,  -1.2793,1.10000,0.90000,1.10000,0.90000
  1991,'CASTLEDOCKRE', 110.0000,1,   6,   9,  17,1.06343,   3.7850,1.10000,0.90000,1.10000,0.90000
  2001,'CULLENAGH   ', 110.0000,1,   5,  12,   3,1.05717,   6.3918,1.10000,0.90000,1.10000,0.90000
  2002,'CULLENAGH   ', 220.0000,1,   5,  12,   3,1.06842,   9.6689,1.10000,0.90000,1.10000,0.90000
  2021,'CITY WEST   ', 110.0000,1,   1,  11,   2,1.02252,  -8.3187,1.10000,0.90000,1.10000,0.90000
  2041,'CORDUFF     ', 110.0000,1,   2,  11,   1,1.05375,  -4.1071,1.10000,0.90000,1.10000,0.90000
  2042,'CORDUFF     ', 220.0000,1,   2,  11,   1,1.07500,  -1.1996,1.10000,0.90000,1.10000,0.90000
  2052,'CORDUFFB    ', 220.0000,1,   2,  11,   1,1.07500,  -1.1996,1.10000,0.90000,1.10000,0.90000
  2081,'DUNKETTLE   ', 110.0000,4,   3,  10,   1,1.00000,   0.0000,1.10000,0.90000,1.10000,0.90000
  2090,'KNOCKRANNY A', 110.0000,1,   9,   2,  25,1.05643,   8.4020,1.10000,0.90000,1.10000,0.90000
  2091,'KNOCKRANNY  ', 110.0000,1,   9,   2,   3,1.06520,   6.7015,1.10000,0.90000,1.10000,0.90000
  2101,'DUNDALK     ', 110.0000,1,  10,   7,   3,1.04000,  -6.3694,1.10000,0.90000,1.10000,0.90000
  2111,'UGOOL       ', 110.0000,1,   9,   2,  17,1.05461,   8.5291,1.10000,0.90000,1.10000,0.90000
  2121,'DRUMLINE    ', 110.0000,1,   4,   4,   2,1.05228,   9.6479,1.10000,0.90000,1.10000,0.90000
  2131,'DROMADA     ', 110.0000,1,   3,   5,  17,1.07679,  16.3681,1.10000,0.90000,1.10000,0.90000
  2141,'DUNGARVAN   ', 110.0000,1,   5,  12,   3,1.04416,   7.8460,1.10000,0.90000,1.10000,0.90000
  2161,'DOON        ', 110.0000,1,   5,   8,   3,1.04583,   6.2389,1.10000,0.90000,1.10000,0.90000
  2171,'KNOCKALOUGH ', 110.0000,1,   9,   2,  18,1.06624,   6.7700,1.10000,0.90000,1.10000,0.90000
  2181,'DRYBRIDGE   ', 110.0000,1,  10,   7,   2,1.04107,  -6.1352,1.10000,0.90000,1.10000,0.90000
  2202,'DUNSTOWN    ', 220.0000,1,   2,  11,   1,1.06411,   1.3740,1.10000,0.90000,1.10000,0.90000
  2204,'DUNSTOWN    ', 380.0000,1,   2,  11,   1,1.05716,   4.3847,1.10000,0.90000,1.10000,0.90000
  2221,'DUNMANWAY   ', 110.0000,1,   3,   6,   3,1.04806,  13.8532,1.10000,0.90000,1.10000,0.90000
  2225,'DUNMANWAY   ', 110.0000,1,   3,   6,   3,1.04806,  13.8532,1.10000,0.90000,1.10000,0.90000
  2231,'DERRYBRIEN  ', 110.0000,1,   4,   4,  17,1.07252,   9.0833,1.10000,0.90000,1.10000,0.90000
  2241,'DALLOW      ', 110.0000,1,   5,  11,   3,1.06470,   4.6319,1.10000,0.90000,1.10000,0.90000
  2251,'DARDISTOWN  ', 110.0000,1,   1,  11,   6,1.05770,  -6.2917,1.10000,0.90000,1.10000,0.90000
  2261,'DERRYIRON   ', 110.0000,1,   8,  11,  11,1.04995,  -2.4499,1.10000,0.90000,1.10000,0.90000
  2281,'DALTON      ', 110.0000,1,   9,   2,   3,1.04790,   5.4306,1.10000,0.90000,1.10000,0.90000
  2301,'DUNFIRTH    ', 110.0000,1,   8,  11,   2,1.05120,  -3.0568,1.10000,0.90000,1.10000,0.90000
  2321,'DRUMKEEN    ', 110.0000,1,   9,   1,   3,1.04607,   4.5501,1.10000,0.90000,1.10000,0.90000
  2361,'ENNIS       ', 110.0000,1,   4,   4,   2,1.05765,   9.7881,1.10000,0.90000,1.10000,0.90000
  2391,'KILL HILL   ', 110.0000,1,   5,   8,  17,1.05536,   7.6724,1.10000,0.90000,1.10000,0.90000
  2401,'MOUNTLUCAS  ', 110.0000,1,   8,  11,  17,1.05762,   0.0498,1.10000,0.90000,1.10000,0.90000
  2421,'CORKAGH     ', 110.0000,1,   1,  11,   7,1.03237,  -7.4864,1.10000,0.90000,1.10000,0.90000
  2481,'FASS EAST   ', 110.0000,1,   2,  11,   2,1.05294,  -2.3387,1.10000,0.90000,1.10000,0.90000
  2491,'FASS WEST   ', 110.0000,1,   2,  11,   2,1.05327,  -2.3215,1.10000,0.90000,1.10000,0.90000
  2521,'FLAGFORD    ', 110.0000,1,   9,   2,   3,1.04942,   1.8307,1.10000,0.90000,1.10000,0.90000
  2522,'FLAGFORD    ', 220.0000,1,   9,   2,   3,1.05273,   3.3160,1.10000,0.90000,1.10000,0.90000
  2541,'FRN ST A    ', 110.0000,1,   1,  11,   1,1.07209,  -6.2090,1.10000,0.90000,1.10000,0.90000
  2551,'FRN ST B    ', 110.0000,1,   1,  11,   1,1.07223,  -4.2263,1.10000,0.90000,1.10000,0.90000
  2561,'FIN_URBAN   ', 110.0000,1,   2,  11,   1,1.07164,  -4.9434,1.10000,0.90000,1.10000,0.90000
  2562,'FINGLAS     ', 220.0000,1,   2,  11,   1,1.07524,  -1.6615,1.10000,0.90000,1.10000,0.90000
  2563,'FINGLAS220B ', 220.0000,1,   2,  11,   1,1.07524,  -1.6615,1.10000,0.90000,1.10000,0.90000
  2571,'FIN_RURAL   ', 110.0000,1,   2,  11,   1,1.05819,  -6.1153,1.10000,0.90000,1.10000,0.90000
  2581,'FINGLAS B5  ', 110.0000,1,   2,  11,   1,1.05344,  -4.1691,1.10000,0.90000,1.10000,0.90000
  2591,'FORTUNESTOWN', 110.0000,1,   1,  11,   1,1.02156,  -8.3514,1.10000,0.90000,1.10000,0.90000
  2671,'GARVAGH     ', 110.0000,1,   9,   1,   3,1.05138,   3.8768,1.10000,0.90000,1.10000,0.90000
  2681,'GILRA       ', 110.0000,1,   9,   3,   6,1.05135,   1.5219,1.10000,0.90000,1.10000,0.90000
  2701,'GLASMORE    ', 110.0000,1,   1,  11,   2,1.03484,  -7.5798,1.10000,0.90000,1.10000,0.90000
  2721,'GRIFFINRATH ', 110.0000,1,   2,  11,   2,1.05521,  -3.1598,1.10000,0.90000,1.10000,0.90000
  2731,'GLANLEE     ', 110.0000,1,   7,   5,  17,1.07371,  19.5660,1.10000,0.90000,1.10000,0.90000
  2741,'GREAT ISLAND', 110.0000,1,   6,   9,   3,1.06109,   5.3090,1.10000,0.90000,1.10000,0.90000
  2742,'GREAT ISLAND', 220.0000,1,   6,   9,   3,1.07500,   8.8005,1.10000,0.90000,1.10000,0.90000
  2761,'GRANGE      ', 110.0000,1,   1,  11,   1,1.05632,  -6.3655,1.10000,0.90000,1.10000,0.90000
  2771,'GARROW      ', 110.0000,1,   7,   5,  17,1.07511,  18.9708,1.10000,0.90000,1.10000,0.90000
  2781,'GALWAY      ', 110.0000,1,   9,   2,   1,1.06372,   7.4971,1.10000,0.90000,1.10000,0.90000
  2801,'GOLAGH      ', 110.0000,1,   9,   1,  17,1.05018,   5.2870,1.10000,0.90000,1.10000,0.90000
  2821,'GORTAWEE    ', 110.0000,1,   9,   1,   3,1.03909,  -2.3107,1.10000,0.90000,1.10000,0.90000
  2841,'GORMAN      ', 110.0000,1,  10,   7,   3,1.04299,  -5.8912,1.10000,0.90000,1.10000,0.90000
  2842,'GORMAN      ', 220.0000,1,  10,   7,   3,1.04955,  -3.1274,1.10000,0.90000,1.10000,0.90000
  2852,'GLANAGOW    ', 220.0000,1,   3,  10,   9,1.07500,  17.8017,1.10000,0.90000,1.10000,0.90000
  2861,'GRANGE CASTL', 110.0000,1,   1,  11,   1,1.03223,  -7.4978,1.10000,0.90000,1.10000,0.90000
  2870,'CLOGHER     ', 110.0000,1,   9,   1,   3,1.05083,   5.2399,1.10000,0.90000,1.10000,0.90000
  2871,'CLOGHER     ', 110.0000,1,   9,   1,   3,1.05083,   5.2399,1.10000,0.90000,1.10000,0.90000
  2881,'GLENLARA    ', 110.0000,1,   3,   5,   3,1.03903,  10.6965,1.10000,0.90000,1.10000,0.90000
  2901,'GLENTANE    ', 110.0000,1,   3,   5,   3,1.06473,  18.3847,1.10000,0.90000,1.10000,0.90000
  2941,'HAROLDS CROS', 110.0000,1,   1,  11,   1,1.07265,  -6.1807,1.10000,0.90000,1.10000,0.90000
  2951,'HEUSTON SQUA', 110.0000,1,   1,  11,   1,1.07230,  -4.2129,1.10000,0.90000,1.10000,0.90000
  2962,'HUNTSTOWN   ', 220.0000,1,   2,  11,   9,1.07525,  -1.6616,1.10000,0.90000,1.10000,0.90000
  2972,'HUNTSTOWN 2 ', 220.0000,1,   2,  11,   9,1.07593,  -0.9787,1.10000,0.90000,1.10000,0.90000
  3061,'INISCARRA   ', 110.0000,1,   3,   5,  13,1.05180,  14.0744,1.10000,0.90000,1.10000,0.90000
  3081,'INCH_CITY   ', 110.0000,1,   1,  11,   1,1.07249,  -4.1740,1.10000,0.90000,1.10000,0.90000
  3082,'INCHICORE   ', 220.0000,1,   2,  11,   1,1.07186,  -2.1201,1.10000,0.90000,1.10000,0.90000
  3091,'INCH_COUNTRY', 110.0000,1,   1,  11,   1,1.03682,  -7.0149,1.10000,0.90000,1.10000,0.90000
  3101,'IKERRIN     ', 110.0000,1,   5,   8,   3,1.05253,   6.4595,1.10000,0.90000,1.10000,0.90000
  3122,'IRISHTOWN   ', 220.0000,1,   2,  11,   1,1.07500,  -1.0606,1.10000,0.90000,1.10000,0.90000
  3190,'KNOCKANURE  ', 110.0000,1,   7,   5,   3,1.05991,  13.2847,1.10000,0.90000,1.10000,0.90000
  3191,'KNOCKANURE  ', 110.0000,1,   7,   5,   3,1.07927,  16.1162,1.10000,0.90000,1.10000,0.90000
  3192,'KNOCKANURE  ', 220.0000,1,   7,   5,   3,1.08696,  15.1654,1.10000,0.90000,1.10000,0.90000
  3200,'KNOCKRAHA_ST', 110.0000,1,   3,  10,   2,1.07058,  16.5516,1.10000,0.90000,1.10000,0.90000
  3201,'KNOCKRAHA   ', 110.0000,1,   3,  10,   2,1.05840,  13.3968,1.10000,0.90000,1.10000,0.90000
  3202,'KNOCKRAHA   ', 220.0000,1,   3,  10,   2,1.07058,  16.5516,1.10000,0.90000,1.10000,0.90000
  3203,'KNOCKRAHA   ', 220.0000,1,   3,  10,   2,1.07058,  16.5516,1.10000,0.90000,1.10000,0.90000
  3209,'KNOCKRAHA   ', 110.0000,1,   3,  10,   2,1.05840,  13.3968,1.10000,0.90000,1.10000,0.90000
  3221,'KILBARRY    ', 110.0000,1,   3,  10,   3,1.05032,  12.9588,1.10000,0.90000,1.10000,0.90000
  3241,'KILTEEL     ', 110.0000,1,   8,  11,   2,1.05414,  -3.9542,1.10000,0.90000,1.10000,0.90000
  3251,'REAMORE     ', 110.0000,1,   7,   5,  19,1.05408,  12.6490,1.10000,0.90000,1.10000,0.90000
  3261,'KILKENNY    ', 110.0000,1,   6,   9,   3,1.04302,   0.2022,1.10000,0.90000,1.10000,0.90000
  3281,'KILLONAN    ', 110.0000,1,   7,   5,   2,1.05874,  10.8549,1.10000,0.90000,1.10000,0.90000
  3282,'KILLONAN    ', 220.0000,1,   7,   5,   2,1.06020,  12.0782,1.10000,0.90000,1.10000,0.90000
  3301,'KNOCKERAGH  ', 110.0000,1,   7,   5,   3,1.04228,  12.2051,1.10000,0.90000,1.10000,0.90000
  3321,'KNOCKUMBER  ', 110.0000,1,  10,   7,   6,1.03647,  -6.3120,1.10000,0.90000,1.10000,0.90000
  3330,'BALLYNAHULLA', 110.0000,1,   3,   5,   3,1.06465,  18.3855,1.10000,0.90000,1.10000,0.90000
  3331,'BALLYNAHULLA', 110.0000,1,   3,   5,   3,1.06465,  18.3855,1.10000,0.90000,1.10000,0.90000
  3332,'BALLYNAHULLA', 220.0000,1,   3,   5,   3,1.07587,  16.9594,1.10000,0.90000,1.10000,0.90000
  3341,'KELLIS      ', 110.0000,1,   6,   9,   3,1.05979,   1.0044,1.10000,0.90000,1.10000,0.90000
  3342,'KELLIS      ', 220.0000,1,   6,   9,   3,1.05318,   3.6565,1.10000,0.90000,1.10000,0.90000
  3381,'KINNEGAD    ', 110.0000,1,   8,  11,   6,1.04952,  -2.8262,1.10000,0.90000,1.10000,0.90000
  3391,'KNOCKACUMMER', 110.0000,1,   3,   5,  17,1.06250,  19.0892,1.10000,0.90000,1.10000,0.90000
  3401,'KILLOTERAN  ', 110.0000,1,   5,  12,   3,1.05435,   5.3950,1.10000,0.90000,1.10000,0.90000
  3421,'KILMORE     ', 110.0000,1,   1,  11,   1,1.05711,  -6.3183,1.10000,0.90000,1.10000,0.90000
  3431,'KILMAHUD    ', 110.0000,1,   1,  11,   7,1.03228,  -7.4914,1.10000,0.90000,1.10000,0.90000
  3461,'KILPADDOGE  ', 110.0000,1,   7,   5,   3,1.06851,  13.7979,1.10000,0.90000,1.10000,0.90000
  3462,'KILPADDOGE  ', 220.0000,1,   7,   5,   3,1.08701,  14.6942,1.10000,0.90000,1.10000,0.90000
  3501,'LANESBORO   ', 110.0000,1,   9,   3,   3,1.05000,   3.0812,1.10000,0.90000,1.10000,0.90000
  3521,'LOUTHA      ', 110.0000,1,  10,   7,  49,1.06543,  -5.1638,1.10000,0.90000,1.10000,0.90000
  3522,'LOUTH       ', 220.0000,1,  10,   7,  49,1.04384,  -3.2735,1.10000,0.90000,1.10000,0.90000
  3541,'LIMERICK    ', 110.0000,1,   7,   5,   1,1.04906,  10.8602,1.10000,0.90000,1.10000,0.90000
  3561,'LISDRUM     ', 110.0000,1,  10,   7,   3,1.05807,  -6.2702,1.10000,0.90000,1.10000,0.90000
  3581,'LETTERKENNY ', 110.0000,1,   9,   1,   2,1.04178,   3.9645,1.10000,0.90000,1.10000,0.90000
  3601,'LIBERTY ST  ', 110.0000,1,   3,  10,   1,1.05086,  12.9838,1.10000,0.90000,1.10000,0.90000
  3611,'LIBERTY ST  ', 110.0000,1,   3,  10,   1,1.05111,  12.9921,1.10000,0.90000,1.10000,0.90000
  3621,'LISHEEN     ', 110.0000,1,   5,   8,   6,1.05000,   8.0996,1.10000,0.90000,1.10000,0.90000
  3631,'CUREENY T   ', 110.0000,1,   5,   8,  17,1.06614,  10.2725,1.10000,0.90000,1.10000,0.90000
  3641,'LODGEWOOD   ', 110.0000,1,   6,   9,   3,1.06381,   3.7176,1.10000,0.90000,1.10000,0.90000
  3642,'LODGEWOOD   ', 220.0000,1,   6,   9,   3,1.06705,   4.8063,1.10000,0.90000,1.10000,0.90000
  3651,'BARNAKYLE   ', 110.0000,1,   1,  11,   2,1.03344,  -7.3929,1.10000,0.90000,1.10000,0.90000
  3751,'MISERY HILL ', 110.0000,1,   1,  11,   1,1.07305,  -6.1502,1.10000,0.90000,1.10000,0.90000
  3761,'MACETOWN    ', 110.0000,1,   1,  11,   2,1.05260,  -4.2188,1.10000,0.90000,1.10000,0.90000
  3781,'MCDERMOTT   ', 110.0000,1,   1,  11,   1,1.06957,  -5.1767,1.10000,0.90000,1.10000,0.90000
  3801,'MIDLETON    ', 110.0000,1,   3,  10,   2,1.05317,  13.2847,1.10000,0.90000,1.10000,0.90000
  3821,'MEATH HILL  ', 110.0000,1,  10,   7,   3,1.03629,  -6.1014,1.10000,0.90000,1.10000,0.90000
  3841,'MAYNOOTH A  ', 110.0000,1,   2,  11,   1,1.05684,  -3.0239,1.10000,0.90000,1.10000,0.90000
  3842,'MAYNOOTH B  ', 220.0000,1,   2,  11,   1,1.06345,  -1.4024,1.10000,0.90000,1.10000,0.90000
  3851,'MAYNOOTH B  ', 110.0000,1,   2,  11,   1,1.05730,  -2.6228,1.10000,0.90000,1.10000,0.90000
  3852,'MAYNOOTH A  ', 220.0000,1,   2,  11,   1,1.06868,  -0.1794,1.10000,0.90000,1.10000,0.90000
  3861,'MILLTOWN    ', 110.0000,1,   1,  11,   1,1.07427,  -6.0688,1.10000,0.90000,1.10000,0.90000
  3871,'MILLTOWN    ', 110.0000,1,   1,  11,   1,1.07065,  -4.3585,1.10000,0.90000,1.10000,0.90000
  3881,'MACROOM     ', 110.0000,1,   3,   5,   2,1.05688,  14.8802,1.10000,0.90000,1.10000,0.90000
  3891,'CARRIGDANGAN', 110.0000,1,   3,   6,  17,1.04814,  13.8516,1.10000,0.90000,1.10000,0.90000
  3901,'MONETEEN    ', 110.0000,1,   7,   5,   2,1.04589,  11.6212,1.10000,0.90000,1.10000,0.90000
  3934,'MNYPG1      ', 380.0000,1,   4,   5,   8,1.07500,  13.3797,1.10000,0.90000,1.10000,0.90000
  3940,'MNYP B      ', 220.0000,1,   7,   5,   8,1.08708,  14.7136,1.10000,0.90000,1.10000,0.90000
  3941,'MONEYPOINT  ', 110.0000,1,   4,   5,   3,1.08015,  13.7716,1.10000,0.90000,1.10000,0.90000
  3942,'MONEYPOINT  ', 220.0000,1,   7,   5,   3,1.08708,  14.7136,1.10000,0.90000,1.10000,0.90000
  3944,'MNYPG3      ', 380.0000,1,   4,   5,   8,1.07500,  13.3797,1.10000,0.90000,1.10000,0.90000
  3954,'MNYPG2      ', 380.0000,1,   7,   5,   8,1.07500,  18.3706,1.10000,0.90000,1.10000,0.90000
  3961,'MARINA      ', 110.0000,1,   3,  10,   1,1.05118,  13.0047,1.10000,0.90000,1.10000,0.90000
  3981,'MUNGRET A   ', 110.0000,1,   7,   5,   6,1.04562,  11.6109,1.10000,0.90000,1.10000,0.90000
  3991,'MUNGRET B   ', 110.0000,1,   7,   5,   6,1.04563,  11.6115,1.10000,0.90000,1.10000,0.90000
  4001,'MULLINGAR   ', 110.0000,1,   9,   3,   3,1.04999,  -2.8189,1.10000,0.90000,1.10000,0.90000
  4021,'MALLOW      ', 110.0000,1,   3,   5,   2,1.04414,  11.4817,1.10000,0.90000,1.10000,0.90000
  4041,'MOY         ', 110.0000,1,   9,   2,   3,1.05739,   5.7531,1.10000,0.90000,1.10000,0.90000
  4061,'MULLAGHARLIN', 110.0000,1,  10,   7,   6,1.04878,  -5.9554,1.10000,0.90000,1.10000,0.90000
  4071,'MEENTYCAT   ', 110.0000,1,   9,   1,  17,1.04766,   4.7862,1.10000,0.90000,1.10000,0.90000
  4081,'MONREAD     ', 110.0000,1,   8,  11,   2,1.05312,  -3.4539,1.10000,0.90000,1.10000,0.90000
  4091,'MULREAVY    ', 110.0000,1,   9,   1,  17,1.05000,   5.4383,1.10000,0.90000,1.10000,0.90000
  4101,'NEWBURY     ', 110.0000,1,   1,  11,   7,1.05681,  -6.3385,1.10000,0.90000,1.10000,0.90000
  4111,'BANCROFT    ', 110.0000,1,   1,  11,   7,1.05875,  -2.0585,1.10000,0.90000,1.10000,0.90000
  4201,'NEWBRIDGE   ', 110.0000,1,   8,  11,   2,1.05459,  -2.2523,1.10000,0.90000,1.10000,0.90000
  4211,'NORTH QUAYS ', 110.0000,1,   1,  11,   1,1.07466,  -6.0416,1.10000,0.90000,1.10000,0.90000
  4221,'NAVAN       ', 110.0000,1,  10,   7,   2,1.04124,  -6.1127,1.10000,0.90000,1.10000,0.90000
  4242,'NORTH WALL  ', 220.0000,1,   2,  11,   9,1.07677,  -1.7095,1.10000,0.90000,1.10000,0.90000
  4261,'NENAGH      ', 110.0000,1,   7,   8,   2,1.05486,   9.7939,1.10000,0.90000,1.10000,0.90000
  4281,'NANGOR      ', 110.0000,1,   1,  11,   6,1.03217,  -7.5035,1.10000,0.90000,1.10000,0.90000
  4341,'OLDCOURT    ', 110.0000,1,   3,  10,   6,1.06115,  13.9591,1.10000,0.90000,1.10000,0.90000
  4351,'OLDCOURT    ', 110.0000,1,   3,  10,   6,1.06117,  13.9602,1.10000,0.90000,1.10000,0.90000
  4361,'OUGHTRAGH   ', 110.0000,1,   7,   5,   3,1.04123,  11.7410,1.10000,0.90000,1.10000,0.90000
  4371,'GLENREE     ', 110.0000,1,   9,   2,   3,1.05857,   5.6758,1.10000,0.90000,1.10000,0.90000
  4382,'OLDSTREET   ', 220.0000,1,   4,   3,   3,1.07112,  13.3055,1.10000,0.90000,1.10000,0.90000
  4384,'OLDSTREET   ', 380.0000,1,   4,   3,   3,1.06422,  11.3222,1.10000,0.90000,1.10000,0.90000
  4401,'POPPINTREE  ', 110.0000,1,   1,  11,   1,1.05738,  -6.2296,1.10000,0.90000,1.10000,0.90000
  4441,'POLLAPHUCA  ', 110.0000,1,   6,  11,  13,1.05000,   2.8979,1.10000,0.90000,1.10000,0.90000
  4461,'POOLBEG     ', 110.0000,1,   1,  11,   1,1.07491,  -5.9053,1.10000,0.90000,1.10000,0.90000
  4462,'POOLBEG NORT', 220.0000,1,   2,  11,   1,1.07667,  -1.7209,1.10000,0.90000,1.10000,0.90000
  4471,'POOLBEG     ', 110.0000,1,   1,  11,   1,1.07491,  -5.9089,1.10000,0.90000,1.10000,0.90000
  4472,'POOLBEG SOUT', 220.0000,1,   2,  11,   1,1.07322,  -2.4119,1.10000,0.90000,1.10000,0.90000
  4481,'PORTLAOISE  ', 110.0000,1,   8,  11,   3,1.05493,  -0.4242,1.10000,0.90000,1.10000,0.90000
  4491,'PELLETSTOWN ', 110.0000,1,   1,  11,   1,1.07008,  -5.1140,1.10000,0.90000,1.10000,0.90000
  4501,'PLATIN      ', 110.0000,1,  10,   7,   6,1.04262,  -5.9532,1.10000,0.90000,1.10000,0.90000
  4511,'POTTERY ROAD', 110.0000,1,   1,  11,   1,1.06460,  -2.9365,1.10000,0.90000,1.10000,0.90000
  4522,'PROSPECT    ', 220.0000,1,   7,   5,   2,1.08651,  14.4351,1.10000,0.90000,1.10000,0.90000
  4621,'RYEBROOK    ', 110.0000,1,   1,  11,   6,1.04436,  -4.0672,1.10000,0.90000,1.10000,0.90000
  4651,'RINGSEND    ', 110.0000,1,   1,  11,   1,1.07482,  -6.0240,1.10000,0.90000,1.10000,0.90000
  4681,'RATHKEALE   ', 110.0000,1,   7,   5,   2,1.05068,  11.8157,1.10000,0.90000,1.10000,0.90000
  4701,'RICHMOND    ', 110.0000,1,   9,   3,   3,1.04371,   2.6661,1.10000,0.90000,1.10000,0.90000
  4711,'RICHMOND    ', 110.0000,1,   9,   3,   3,1.04371,   2.6661,1.10000,0.90000,1.10000,0.90000
  4721,'RAFFEEN     ', 110.0000,1,   3,  10,   2,1.06369,  14.2087,1.10000,0.90000,1.10000,0.90000
  4722,'RAFFEEN     ', 220.0000,1,   3,  10,   2,1.07356,  17.4375,1.10000,0.90000,1.10000,0.90000
  4731,'RAFFEENB    ', 110.0000,1,   3,  10,   2,1.05964,  14.0537,1.10000,0.90000,1.10000,0.90000
  4741,'RINAWADE    ', 110.0000,1,   2,  11,   6,1.05511,  -2.7985,1.10000,0.90000,1.10000,0.90000
  4761,'RINGASKIDDY ', 110.0000,1,   3,  10,   2,1.05947,  14.0387,1.10000,0.90000,1.10000,0.90000
  4781,'RATRUSSAN   ', 110.0000,1,  10,   7,  17,1.05000,  -4.1954,1.10000,0.90000,1.10000,0.90000
  4901,'SHELTON ABBE', 110.0000,1,   6,   9,   6,1.06626,   0.8592,1.10000,0.90000,1.10000,0.90000
  4941,'SHANNONBRIDG', 110.0000,1,   5,   3,   3,1.07500,   6.3662,1.10000,0.90000,1.10000,0.90000
  4942,'SHANNONBRIDG', 220.0000,1,   5,   3,   3,1.06858,   6.3454,1.10000,0.90000,1.10000,0.90000
  4943,'SHANNONBRIDG', 220.0000,1,   5,   3,   3,1.06858,   6.3454,1.10000,0.90000,1.10000,0.90000
  4951,'SALTHILL    ', 110.0000,1,   9,   2,   1,1.06300,   7.4110,1.10000,0.90000,1.10000,0.90000
  4961,'SHANKILL    ', 110.0000,1,  10,   7,   3,1.04624,  -4.5462,1.10000,0.90000,1.10000,0.90000
  4981,'SLIGO       ', 110.0000,1,   9,   2,   3,1.04445,   3.1091,1.10000,0.90000,1.10000,0.90000
  4991,'SORNE HILL  ', 110.0000,1,   9,   1,  18,1.04619,   4.7906,1.10000,0.90000,1.10000,0.90000
  5001,'SOMERSET    ', 110.0000,1,   9,   3,   3,1.06960,   6.3463,1.10000,0.90000,1.10000,0.90000
  5022,'SHELLYBANKS ', 220.0000,1,   2,  11,   1,1.07668,  -1.7195,1.10000,0.90000,1.10000,0.90000
  5031,'STEPHENSTOWN', 110.0000,1,   1,  11,   2,1.03953,  -7.4056,1.10000,0.90000,1.10000,0.90000
  5041,'SRANANAGH   ', 110.0000,1,   9,   2,   3,1.04820,   3.4092,1.10000,0.90000,1.10000,0.90000
  5042,'SRANANAGH   ', 220.0000,1,   9,   2,   3,1.05195,   3.3577,1.10000,0.90000,1.10000,0.90000
  5051,'SEAL ROCK   ', 110.0000,1,   7,   5,  15,1.05041,  15.3084,1.10000,0.90000,1.10000,0.90000
  5061,'STRATFORD   ', 110.0000,1,   6,   9,   3,1.04622,   1.2565,1.10000,0.90000,1.10000,0.90000
  5071,'SEAL ROCK   ', 110.0000,1,   7,   5,  15,1.05041,  15.3084,1.10000,0.90000,1.10000,0.90000
  5091,'SINGLAND    ', 110.0000,1,   7,   4,   1,1.05457,  10.7329,1.10000,0.90000,1.10000,0.90000
  5111,'SNUGHBOROUGH', 110.0000,1,   2,  11,   7,1.05356,  -4.1381,1.10000,0.90000,1.10000,0.90000
  5122,'SHELLYBANKS ', 220.0000,1,   2,  11,   1,1.07501,  -1.0607,1.10000,0.90000,1.10000,0.90000
  5131,'TANEY       ', 110.0000,1,   1,  11,   1,1.06431,  -3.0155,1.10000,0.90000,1.10000,0.90000
  5140,'TARBERT     ', 220.0000,1,   7,   5,   3,1.08707,  14.6611,1.10000,0.90000,1.10000,0.90000
  5141,'TARBERT     ', 110.0000,1,   7,   5,   3,1.08707,  14.6611,1.10000,0.90000,1.10000,0.90000
  5142,'TARBERT     ', 220.0000,1,   7,   5,   3,1.08707,  14.6611,1.10000,0.90000,1.10000,0.90000
  5172,'TYNAGH      ', 220.0000,1,   4,   3,   9,1.07500,  13.9090,1.10000,0.90000,1.10000,0.90000
  5181,'TRABEG      ', 110.0000,1,   3,  10,   1,1.05157,  13.0234,1.10000,0.90000,1.10000,0.90000
  5191,'TIEVEBRACK  ', 110.0000,1,   9,   1,   3,1.03477,   4.0059,1.10000,0.90000,1.10000,0.90000
  5192,'CROAGHNAGAWN', 110.0000,1,   9,   1,  17,1.05760,   5.8421,1.10000,0.90000,1.10000,0.90000